<?xml version="1.0" encoding="iso-8859-1"?>
<!--
<ReadMe>

This XML can be imported in Altium Designer 14 using WEBENCH Altium Connector Extension and simulated using WEBENCH Simulation Engine.
The WEBENCH Altium Connector provides an interface to the Texas Instruments WEBENCH Designer Tools as well as to open WEBENCH exported Designs directly from inside Altium Designer.
It also includes the advanced WEBENCH Simulation Engine which can be used for offline circuit simulations.
You will need a activation key from TI to be able to use the WEBENCH Simulation Engine.

Installation guide:
http://www.ti.com/lit/SNVU481
You can download the WEBENCH extension from Altium Designer 14 Extensions.

Connector Details:
http://www.ti.com/lsds/ti/analog/webench/altiumconnector.page

More about WEBENCH simulation export to Altium:
http://www.ti.com/lsds/ti/analog/webench/simexportaltium.page

User Manual:
http://www.ti.com/lit/szzu007

</ReadMe>
-->
<schematic>
  <circuit>
    <text id="T_123456" position="400,-148" fontname="Times New Roman" fontsize="27" bold="0" color="#294901">
      <![CDATA[LMR14050S Startup Simulation
(Exported from WEBENCH® Designer)]]>
    </text>
    <text id="T_123456" position="945,-148" fontname="Arial" fontsize="13" bold="1" italic="1" color="#278190" border="1">
      <![CDATA[Title :    LMR14050SDDAR 18V-24V to 17.00V @ 4A
-------------------------------------------------------------------------
WEBENCH® Design ID                  :       13
Date of WEBENCH® Export           :       20-May-2020
Time of WEBENCH® Export          :       7:43:59 PM
WEBENCH® Export Tool Version :       E1.67-X2.27]]>
    </text>
    <component type="Css" typeid="57" position="1070,440" mirrored="0" nodematch="0" macrotype="2" orientation="0">
			<parameter idx="0" encrypted="0">
        <![CDATA[
***********************************
*     Created by WB Importer      *
***********************************
.subckt LM5000_MAIN_BLOCK_WB_LMR14030S_BUCK_BLOCK_Css 1 2
Css 1 2 8.2E-9

.ends]]>
      </parameter>
			<image>
				<label text="Css" position="1076,418" textroot=" " orientation="0" color=""/>  <hotzone points="-24,60,24,-60"/>
        <shape type="line" width="Hair" color="#0000ff" points="0,-60,0,-40"/>
        <shape type="line" width="Hair" color="#0000ff" points="0,60,0,40"/>
        <shape type="line" width="1" color="#0000ff" points="24,-6,-24,-6"/>
        <shape type="line" width="1" color="#0000ff" points="0,40,0,6"/>
        <shape type="line" width="1" color="#0000ff" points="0,-6,0,-40"/>
        <shape type="line" width="1" color="#0000ff" points="24,6,-24,6"/>
        <legend text="8.2 nF" position="8,18" orientation="0" fontname="Arial" fontsize="12" bold="0" italic="0" color="#229922"/>
        <legend text="1 mOhm" position="8,32" orientation="0" fontname="Arial" fontsize="12" bold="0" italic="0" color="#229922"/>
        <legend text="" position="8,48" orientation="0" fontname="Arial" fontsize="12" bold="0" italic="0" color="#229922"/>
        <pin position="0,-60" dir="0" length="0" text="1"/>
        <pin position="0,60" dir="0" length="0" text="2"/>
      </image>
		</component>
    <component type="VOut" typeid="4" position="2110,220" mirrored="0" nodematch="0" macrotype="2" orientation="0">
			<parameter idx="0" encrypted="0">
			</parameter>
			<image>
				<label text="VOut" position="2110,190" textroot="VOut" orientation="0" color="#228822"/>
			</image>
		</component>
    <component type="ICin" typeid="34" position="590,250" mirrored="0" nodematch="0" macrotype="2" orientation="0">
			<parameter idx="0" encrypted="0">
			</parameter>
			<image>
				<label text="ICin" position="590,250" textroot=" " orientation="0" color=""/>  <hotzone points="6,-30,-6,30"/>
        <shape type="line" width="Hair" color="#0000ff" points="0,-30,0,30"/>
        <shape type="line" width="1" color="#0000ff" points="4,-6,-4,-6"/>
        <shape type="line" width="1" color="#0000ff" points="-4,-6,0,4"/>
        <shape type="line" width="1" color="#0000ff" points="0,4,4,-6"/>
        <pin position="0,-30" dir="0" length="0" text="1"/>
        <pin position="0,30" dir="0" length="0" text="2"/>
      </image>  <parameter idx="0" encrypted="0">
        <![CDATA[***********************************
*     Created by WB Importer      *
***********************************
.SUBCKT ICin 1 2 
V_Iprobe 1 2 0.0
.ENDS
]]>
      </parameter>
      <parameter idx="1" name="VALUE" value="0"/>
    </component>
    <component type="IInductor" typeid="34" position="1850,220" mirrored="0" nodematch="0" macrotype="2" orientation="0">
			<parameter idx="0" encrypted="0">
			</parameter>
			<image>
				<label text="IInductor" position="1850,220" textroot=" " orientation="0" color=""/>  <hotzone points="-30,-6,30,6"/>
        <shape type="line" width="Hair" color="#0000ff" points="-30,0,30,0"/>
        <shape type="line" width="1" color="#0000ff" points="-6,-4,-6,4"/>
        <shape type="line" width="1" color="#0000ff" points="-6,4,4,0"/>
        <shape type="line" width="1" color="#0000ff" points="4,0,-6,-4"/>
        <pin position="-30,0" dir="0" length="0" text="1"/>
        <pin position="30,0" dir="0" length="0" text="2"/>
      </image>  <parameter idx="0" encrypted="0">
        <![CDATA[***********************************
*     Created by WB Importer      *
***********************************
.SUBCKT IInductor 1 2 
V_Iprobe 1 2 0.0
.ENDS
]]>
      </parameter>
      <parameter idx="1" name="VALUE" value="0"/>
    </component>
    <component type="Rfbb" typeid="57" position="1910,580" mirrored="0" nodematch="0" macrotype="2" orientation="0">
			<parameter idx="0" encrypted="0">
        <![CDATA[
***********************************
*     Created by WB Importer      *
***********************************
.subckt LM5000_MAIN_BLOCK_WB_LMR14030S_BUCK_BLOCK_Rfbb 1 2
Rfbb 1 2 10200.0

.ends]]>
      </parameter>
			<image>
				<label text="Rfbb" position="1928,550" textroot=" " orientation="0" color=""/>  <hotzone points="-10,60,10,-60"/>
        <shape type="line" width="1" color="#0000ff" points="0,60,0,40"/>
        <shape type="line" width="1" color="#0000ff" points="0,40,-10,30"/>
        <shape type="line" width="1" color="#0000ff" points="-10,30,10,10"/>
        <shape type="line" width="1" color="#0000ff" points="10,10,-10,-10"/>
        <shape type="line" width="1" color="#0000ff" points="-10,-10,10,-30"/>
        <shape type="line" width="1" color="#0000ff" points="10,-30,0,-40"/>
        <shape type="line" width="1" color="#0000ff" points="0,-40,0,-60"/>
        <legend text="10.2 kOhm" position="10,-8" orientation="0" fontname="Arial" fontsize="12" bold="0" italic="0" color="#229922"/>
        <pin position="0,-60" dir="0" length="0" text="1"/>
        <pin position="0,60" dir="0" length="0" text="2"/>
      </image>
		</component>
    <component type="Ground" typeid="2" position="1510,450" mirrored="0" nodematch="0" macrotype="2" orientation="0">
			<parameter idx="0" encrypted="0">
			</parameter>
			<image>
				<label text="GND1" position="1510,450" textroot="GND1" orientation="0" color="#228822"/>
			</image>
		</component>
    <component type="Ground" typeid="2" position="1070,510" mirrored="0" nodematch="0" macrotype="2" orientation="0">
			<parameter idx="0" encrypted="0">
			</parameter>
			<image>
				<label text="GND1" position="1070,510" textroot="GND1" orientation="0" color="#228822"/>
			</image>
		</component>
    <component type="Cout" typeid="57" position="2050,420" mirrored="0" nodematch="0" macrotype="2" orientation="0">
			<parameter idx="0" encrypted="0">
        <![CDATA[
***********************************
*     Created by WB Importer      *
***********************************
.SUBCKT LM5000_MAIN_BLOCK_Cout_WB_CAP_TANTALUM 13 2
C3 13 11 1.2129054999999999E-5 IC=0.0
C4 13 3 6.0645274999999995E-6 IC=0.0
C5 13 4 3.0322637499999998E-6 IC=0.0
R1 4 5 0.01875
R2 3 6 0.0135
R3 11 7 0.02625
R4 12 8 0.0348
C6 13 9 4.8516219999999996E-5 IC=0.0
R5 13 0 1000000.0
R6 9 10 0.09375
L1 5 2 8.0E-9
L2 6 2 8.0E-9
L3 7 2 8.0E-9
L4 8 2 8.0E-9
L5 10 2 8.0E-9
R8 2 0 1000000.0
C2 13 12 2.4258109999999998E-5 IC=0.0
.ENDS]]>
      </parameter>
			<image>
				<label text="Cout" position="2056,398" textroot=" " orientation="0" color=""/>  <hotzone points="-24,60,24,-60"/>
        <shape type="line" width="Hair" color="#0000ff" points="0,-60,0,-40"/>
        <shape type="line" width="Hair" color="#0000ff" points="0,60,0,40"/>
        <shape type="line" width="1" color="#0000ff" points="24,-6,-24,-6"/>
        <shape type="line" width="1" color="#0000ff" points="0,40,0,6"/>
        <shape type="line" width="1" color="#0000ff" points="0,-6,0,-40"/>
        <shape type="line" width="1" color="#0000ff" points="24,6,-24,6"/>
        <legend text="47 uF" position="8,18" orientation="0" fontname="Arial" fontsize="12" bold="0" italic="0" color="#229922"/>
        <legend text="30 mOhm" position="8,32" orientation="0" fontname="Arial" fontsize="12" bold="0" italic="0" color="#229922"/>
        <legend text="qty=2" position="8,48" orientation="0" fontname="Arial" fontsize="12" bold="0" italic="0" color="#229922"/>
        <pin position="0,-60" dir="0" length="0" text="13"/>
        <pin position="0,60" dir="0" length="0" text="2"/>
      </image>
		</component>
    <component type="Isw" typeid="34" position="1400,220" mirrored="0" nodematch="0" macrotype="2" orientation="0">
			<parameter idx="0" encrypted="0">
			</parameter>
			<image>
				<label text="Isw" position="1400,220" textroot=" " orientation="0" color=""/>  <hotzone points="-30,-6,30,6"/>
        <shape type="line" width="Hair" color="#0000ff" points="-30,0,30,0"/>
        <shape type="line" width="1" color="#0000ff" points="-6,-4,-6,4"/>
        <shape type="line" width="1" color="#0000ff" points="-6,4,4,0"/>
        <shape type="line" width="1" color="#0000ff" points="4,0,-6,-4"/>
        <pin position="-30,0" dir="0" length="0" text="1"/>
        <pin position="30,0" dir="0" length="0" text="2"/>
      </image>  <parameter idx="0" encrypted="0">
        <![CDATA[***********************************
*     Created by WB Importer      *
***********************************
.SUBCKT Isw 1 2 
V_Iprobe 1 2 0.0
.ENDS
]]>
      </parameter>
      <parameter idx="1" name="VALUE" value="0"/>
    </component>
    <component type="IOut" typeid="34" position="2250,220" mirrored="0" nodematch="0" macrotype="2" orientation="0">
			<parameter idx="0" encrypted="0">
			</parameter>
			<image>
				<label text="IOut" position="2250,220" textroot=" " orientation="0" color=""/>  <hotzone points="-30,-6,30,6"/>
        <shape type="line" width="Hair" color="#0000ff" points="-30,0,30,0"/>
        <shape type="line" width="1" color="#0000ff" points="-6,-4,-6,4"/>
        <shape type="line" width="1" color="#0000ff" points="-6,4,4,0"/>
        <shape type="line" width="1" color="#0000ff" points="4,0,-6,-4"/>
        <pin position="-30,0" dir="0" length="0" text="1"/>
        <pin position="30,0" dir="0" length="0" text="2"/>
      </image>  <parameter idx="0" encrypted="0">
        <![CDATA[***********************************
*     Created by WB Importer      *
***********************************
.SUBCKT IOut 1 2 
V_Iprobe 1 2 0.0
.ENDS
]]>
      </parameter>
      <parameter idx="1" name="VALUE" value="0"/>
    </component>
    <component type="L1" typeid="57" position="1730,220" mirrored="0" nodematch="0" macrotype="2" orientation="0">
			<parameter idx="0" encrypted="0">
        <![CDATA[
***********************************
*     Created by WB Importer      *
***********************************
.SUBCKT LM5000_MAIN_BLOCK_L1_WB_INDUCTOR 1 2
L1 2 3 2.2E-6
RDCR 3 1 0.015
.ENDS]]>
      </parameter>
			<image>
				<label text="L1" position="1696,190" textroot=" " orientation="0" color=""/>  <hotzone points="-60,-10,60,10"/>
        <shape type="line" width="Hair" color="#0000ff" points="40,0,60,0"/>
        <shape type="line" width="Hair" color="#0000ff" points="-40,0,-60,0"/>
        <legend text="2.2 uH" position="-30,8" orientation="0" fontname="Arial" fontsize="12" bold="0" italic="0" color="#229922"/>
        <legend text="15 mOhm" position="-30,22" orientation="0" fontname="Arial" fontsize="12" bold="0" italic="0" color="#229922"/>
        <shape type="arc" color="#0000ff" width="2" points="-40,-10,-20,10,90,90"/>
        <shape type="arc" color="#0000ff" width="2" points="-40,-10,-20,10,0,90"/>
        <shape type="arc" color="#0000ff" width="2" points="-20,-10,0,10,90,90"/>
        <shape type="arc" color="#0000ff" width="2" points="-20,-10,0,10,0,90"/>
        <shape type="arc" color="#0000ff" width="2" points="0,-10,20,10,90,90"/>
        <shape type="arc" color="#0000ff" width="2" points="0,-10,20,10,0,90"/>
        <shape type="arc" color="#0000ff" width="2" points="20,-10,40,10,90,90"/>
        <shape type="arc" color="#0000ff" width="2" points="20,-10,40,10,0,90"/>
        <pin position="-60,0" dir="0" length="0" text="1"/>
        <pin position="60,0" dir="0" length="0" text="2"/>
      </image>
		</component>
    <component type="Iin" typeid="34" position="470,160" mirrored="0" nodematch="0" macrotype="2" orientation="0">
			<parameter idx="0" encrypted="0">
			</parameter>
			<image>
				<label text="Iin" position="470,160" textroot=" " orientation="0" color=""/>  <hotzone points="-30,-6,30,6"/>
        <shape type="line" width="Hair" color="#0000ff" points="-30,0,30,0"/>
        <shape type="line" width="1" color="#0000ff" points="-6,-4,-6,4"/>
        <shape type="line" width="1" color="#0000ff" points="-6,4,4,0"/>
        <shape type="line" width="1" color="#0000ff" points="4,0,-6,-4"/>
        <pin position="-30,0" dir="0" length="0" text="1"/>
        <pin position="30,0" dir="0" length="0" text="2"/>
      </image>  <parameter idx="0" encrypted="0">
        <![CDATA[***********************************
*     Created by WB Importer      *
***********************************
.SUBCKT Iin 1 2 
V_Iprobe 1 2 0.0
.ENDS
]]>
      </parameter>
      <parameter idx="1" name="VALUE" value="0"/>
    </component>
    <component type="ICout" typeid="34" position="2050,300" mirrored="0" nodematch="0" macrotype="2" orientation="0">
			<parameter idx="0" encrypted="0">
			</parameter>
			<image>
				<label text="ICout" position="2050,300" textroot=" " orientation="0" color=""/>  <hotzone points="6,-30,-6,30"/>
        <shape type="line" width="Hair" color="#0000ff" points="0,-30,0,30"/>
        <shape type="line" width="1" color="#0000ff" points="4,-6,-4,-6"/>
        <shape type="line" width="1" color="#0000ff" points="-4,-6,0,4"/>
        <shape type="line" width="1" color="#0000ff" points="0,4,4,-6"/>
        <pin position="0,-30" dir="0" length="0" text="1"/>
        <pin position="0,30" dir="0" length="0" text="2"/>
      </image>  <parameter idx="0" encrypted="0">
        <![CDATA[***********************************
*     Created by WB Importer      *
***********************************
.SUBCKT ICout 1 2 
V_Iprobe 1 2 0.0
.ENDS
]]>
      </parameter>
      <parameter idx="1" name="VALUE" value="0"/>
    </component>
    <component type="Vsw" typeid="4" position="1610,220" mirrored="0" nodematch="0" macrotype="2" orientation="0">
			<parameter idx="0" encrypted="0">
			</parameter>
			<image>
				<label text="Vsw" position="1610,190" textroot="Vsw" orientation="0" color="#228822"/>
			</image>
		</component>
    <component type="Cboot" typeid="57" position="1480,110" mirrored="0" nodematch="0" macrotype="2" orientation="0">
			<parameter idx="0" encrypted="0">
        <![CDATA[
***********************************
*     Created by WB Importer      *
***********************************
.SUBCKT LM5000_MAIN_BLOCK_Cboot_WB_CAP_POLARIZED 1 2
Ccap 1 3 2.2E-7
Resr 3 2 0.001
.ENDS]]>
      </parameter>
			<image>
				<label text="Cboot" position="1490,92" textroot=" " orientation="0" color=""/>  <hotzone points="60,24,-60,-24"/>
        <shape type="line" width="Hair" color="#0000ff" points="-60,0,-40,0"/>
        <shape type="line" width="Hair" color="#0000ff" points="60,0,40,0"/>
        <shape type="line" width="1" color="#0000ff" points="-6,-24,-6,24"/>
        <shape type="line" width="1" color="#0000ff" points="40,0,6,0"/>
        <shape type="line" width="1" color="#0000ff" points="-6,0,-40,0"/>
        <shape type="line" width="1" color="#0000ff" points="6,-24,6,24"/>
        <legend text="0.22 uF" position="18,10" orientation="0" fontname="Arial" fontsize="12" bold="0" italic="0" color="#229922"/>
        <legend text="1 mOhm" position="18,26" orientation="0" fontname="Arial" fontsize="12" bold="0" italic="0" color="#229922"/>
        <legend text="" position="18,40" orientation="0" fontname="Arial" fontsize="12" bold="0" italic="0" color="#229922"/>
        <pin position="-60,0" dir="0" length="0" text="1"/>
        <pin position="60,0" dir="0" length="0" text="2"/>
      </image>
		</component>
    <component type="Cin" typeid="57" position="590,360" mirrored="0" nodematch="0" macrotype="2" orientation="0">
			<parameter idx="0" encrypted="0">
        <![CDATA[
***********************************
*     Created by WB Importer      *
***********************************
.SUBCKT LM5000_MAIN_BLOCK_Cin_WB_CAP_POLARIZED 1 2
Ccap 1 3 4.7E-6
Resr 3 2 0.003
.ENDS]]>
      </parameter>
			<image>
				<label text="Cin" position="596,338" textroot=" " orientation="0" color=""/>  <hotzone points="-24,60,24,-60"/>
        <shape type="line" width="Hair" color="#0000ff" points="0,-60,0,-40"/>
        <shape type="line" width="Hair" color="#0000ff" points="0,60,0,40"/>
        <shape type="line" width="1" color="#0000ff" points="24,-6,-24,-6"/>
        <shape type="line" width="1" color="#0000ff" points="0,40,0,6"/>
        <shape type="line" width="1" color="#0000ff" points="0,-6,0,-40"/>
        <shape type="line" width="1" color="#0000ff" points="24,6,-24,6"/>
        <legend text="4.7 uF" position="8,18" orientation="0" fontname="Arial" fontsize="12" bold="0" italic="0" color="#229922"/>
        <legend text="3 mOhm" position="8,32" orientation="0" fontname="Arial" fontsize="12" bold="0" italic="0" color="#229922"/>
        <legend text="" position="8,48" orientation="0" fontname="Arial" fontsize="12" bold="0" italic="0" color="#229922"/>
        <pin position="0,-60" dir="0" length="0" text="1"/>
        <pin position="0,60" dir="0" length="0" text="2"/>
      </image>
		</component>
    <component type="VIn" typeid="4" position="770,160" mirrored="0" nodematch="0" macrotype="2" orientation="0">
			<parameter idx="0" encrypted="0">
			</parameter>
			<image>
				<label text="VIn" position="770,130" textroot="VIn" orientation="0" color="#228822"/>
			</image>
		</component>
    <component type="LMR14050SDDAR" typeid="57" position="1210,240" mirrored="0" nodematch="0" macrotype="2" orientation="0">
			<parameter idx="0" encrypted="0">
        <![CDATA[*****************************************************************************
** LM5000_MAIN_BLOCK.U1.WB_LMR14030SDDA Spice Model
*****************************************************************************
** (C) Copyright 2020 Texas Instruments Incorporated. All rights reserved.
** This model is designed as an aid for customers of Texas Instruments.
** TI and its licensors and suppliers make no warranties, either expressed
** or implied, with respect to this model, including the warranties of
** merchantability or fitness for a particular purpose. The model is
** provided solely on an "as is" basis. The entire risk as to its quality
** and performance is with the customer
*****************************************************************************
*****************************************************************************

.SUBCKT LM5000_MAIN_BLOCK_U1_WB_LMR14030SDDA_ENCR BOOT VIN EN RT_SYNC FB SS GND SW PAD PARAMS: SS=0
.include pspice://../LM5000_MAIN_BLOCK.U1.WB_LMR14030SDDA.enl
XCALL BOOT VIN EN RT_SYNC FB SS GND SW PAD LM5000_MAIN_BLOCK_U1_WB_LMR14030SDDA PARAMS: SS=0 
.ENDS
]]>
      </parameter>
			<image>
				<label text="U1" position="1070,60" textroot="U1 " orientation="0" color=""/>  <hotzone points="-140,-160,140,160"/>
        <shape type="line" width="Hair" color="#0000ff" points="-100,120,100,120"/>
        <shape type="line" width="Hair" color="#0000ff" points="100,120,100,-120"/>
        <shape type="line" width="Hair" color="#0000ff" points="100,-120,-100,-120"/>
        <shape type="line" width="Hair" color="#0000ff" points="-100,-120,-100,120"/>
        <shape type="line" width="Hair" color="#0000ff" points="140,-80,100,-80"/>
        <shape type="line" width="Hair" color="#0000ff" points="-140,-80,-100,-80"/>
        <shape type="line" width="Hair" color="#0000ff" points="-140,-40,-100,-40"/>
        <shape type="line" width="Hair" color="#0000ff" points="-140,0,-100,0"/>
        <shape type="line" width="Hair" color="#0000ff" points="140,20,100,20"/>
        <shape type="line" width="Hair" color="#0000ff" points="-140,80,-100,80"/>
        <shape type="line" width="Hair" color="#0000ff" points="140,60,100,60"/>
        <shape type="line" width="Hair" color="#0000ff" points="140,-20,100,-20"/>
        <shape type="line" width="Hair" color="#0000ff" points="140,80,100,80"/>
        <shape type="line" width="1" color="#ff0000" points="-1,-95,-2,-90"/>
        <shape type="line" width="1" color="#ff0000" points="-1,-97,-1,-97"/>
        <shape type="polygon" width="1" color="#ff0000" fill="#ff0000" points="-7,-99,-7,-93,-11,-93,-11,-92,-10,-91,-9,-89,-8,-88,-7,-88,-6,-89,-5,-88,-4,-86,-1,-84,0,-84,0,-86,1,-88,3,-89,4,-90,4,-93,3,-94,3,-96,1,-96,0,-94,2,-94,1,-92,0,-92,-1,-90,0,-90,0,-89,-1,-88,-3,-88,-4,-89,-3,-92,-5,-92,-4,-94,-3,-94,-3,-94,-2,-96,-4,-96,-4,-98,-4,-99"/>
        <legend text="LMR14050SDDA" position="-48,-64" orientation="0" fontname="Arial" fontsize="10" bold="0" italic="0" color="4278190208"/>
        <pin position="140,-80" dir="0" length="0" text="BOOT">
          <legend text="BOOT" position="80,-90" orientation="0" fontname="Arial" fontsize="10" bold="0" italic="0" color="4286578688"/>
        </pin>
        <pin position="-140,-80" dir="0" length="0" text="VIN">
          <legend text="VIN" position="-118,-90" orientation="0" fontname="Arial" fontsize="10" bold="0" italic="0" color="4286578688"/>
        </pin>
        <pin position="-140,-40" dir="0" length="0" text="EN">
          <legend text="EN" position="-118,-50" orientation="0" fontname="Arial" fontsize="10" bold="0" italic="0" color="4286578688"/>
        </pin>
        <pin position="-140,0" dir="0" length="0" text="RT_SYNC">
          <legend text="RT_SYNC" position="-118,-10" orientation="0" fontname="Arial" fontsize="10" bold="0" italic="0" color="4286578688"/>
        </pin>
        <pin position="140,20" dir="0" length="0" text="FB">
          <legend text="FB" position="100,10" orientation="0" fontname="Arial" fontsize="10" bold="0" italic="0" color="4286578688"/>
        </pin>
        <pin position="-140,80" dir="0" length="0" text="SS">
          <legend text="SS" position="-118,70" orientation="0" fontname="Arial" fontsize="10" bold="0" italic="0" color="4286578688"/>
        </pin>
        <pin position="140,60" dir="0" length="0" text="GND">
          <legend text="GND" position="90,50" orientation="0" fontname="Arial" fontsize="10" bold="0" italic="0" color="4286578688"/>
        </pin>
        <pin position="140,-20" dir="0" length="0" text="SW">
          <legend text="SW" position="100,-30" orientation="0" fontname="Arial" fontsize="10" bold="0" italic="0" color="4286578688"/>
        </pin>
        <pin position="140,80" dir="0" length="0" text="PAD">
          <legend text="PAD" position="90,70" orientation="0" fontname="Arial" fontsize="10" bold="0" italic="0" color="4286578688"/>
        </pin>
      </image>
		</component>
    <component type="Rt" typeid="57" position="920,370" mirrored="0" nodematch="0" macrotype="2" orientation="0">
			<parameter idx="0" encrypted="0">
        <![CDATA[
***********************************
*     Created by WB Importer      *
***********************************
.subckt LM5000_MAIN_BLOCK_WB_LMR14030S_BUCK_BLOCK_Rt 1 2
Rt 1 2 13700.0

.ends]]>
      </parameter>
			<image>
				<label text="Rt" position="938,340" textroot=" " orientation="0" color=""/>  <hotzone points="-10,60,10,-60"/>
        <shape type="line" width="1" color="#0000ff" points="0,60,0,40"/>
        <shape type="line" width="1" color="#0000ff" points="0,40,-10,30"/>
        <shape type="line" width="1" color="#0000ff" points="-10,30,10,10"/>
        <shape type="line" width="1" color="#0000ff" points="10,10,-10,-10"/>
        <shape type="line" width="1" color="#0000ff" points="-10,-10,10,-30"/>
        <shape type="line" width="1" color="#0000ff" points="10,-30,0,-40"/>
        <shape type="line" width="1" color="#0000ff" points="0,-40,0,-60"/>
        <legend text="13.7 kOhm" position="10,-8" orientation="0" fontname="Arial" fontsize="12" bold="0" italic="0" color="#229922"/>
        <pin position="0,-60" dir="0" length="0" text="1"/>
        <pin position="0,60" dir="0" length="0" text="2"/>
      </image>
		</component>
    <component type="Ground" typeid="2" position="920,510" mirrored="0" nodematch="0" macrotype="2" orientation="0">
			<parameter idx="0" encrypted="0">
			</parameter>
			<image>
				<label text="GND1" position="920,510" textroot="GND1" orientation="0" color="#228822"/>
			</image>
		</component>
    <component type="D1" typeid="57" position="1510,300" mirrored="0" nodematch="0" macrotype="2" orientation="0">
			<parameter idx="0" encrypted="0">
        <![CDATA[*****************************************************************************
** LM5000_MAIN_BLOCK.WB_LMR14030S_BUCK_BLOCK.D1 Spice Model
*****************************************************************************
** (C) Copyright 2020 Texas Instruments Incorporated. All rights reserved.
** This model is designed as an aid for customers of Texas Instruments.
** TI and its licensors and suppliers make no warranties, either expressed
** or implied, with respect to this model, including the warranties of
** merchantability or fitness for a particular purpose. The model is
** provided solely on an "as is" basis. The entire risk as to its quality
** and performance is with the customer
*****************************************************************************
*****************************************************************************

.subckt LM5000_MAIN_BLOCK_WB_LMR14030S_BUCK_BLOCK_D1_ENCR A K
.include pspice://../LM5000_MAIN_BLOCK.WB_LMR14030S_BUCK_BLOCK.D1.enl
XCALL A K LM5000_MAIN_BLOCK_WB_LMR14030S_BUCK_BLOCK_D1 
.ENDS
]]>
      </parameter>
			<image>
				<label text="D1" position="1540,282" textroot=" " orientation="0" color=""/>  <hotzone points="20,-60,-20,60"/>
        <shape type="line" width="Hair" color="#0000ff" points="0,20,0,60"/>
        <shape type="line" width="Hair" color="#0000ff" points="0,-60,0,-20"/>
        <shape type="line" width="1" color="#0000ff" points="16,-26,20,-26"/>
        <shape type="line" width="1" color="#0000ff" points="20,-26,20,-20"/>
        <shape type="line" width="1" color="#0000ff" points="20,-20,-20,-20"/>
        <shape type="line" width="1" color="#0000ff" points="-20,-20,-20,-12"/>
        <shape type="line" width="1" color="#0000ff" points="-20,-12,-16,-12"/>
        <shape type="polygon" color="#0000ff" width="1" fill="4278222976" points="0,-20,20,20,-20,20"/>
        <legend text="5 A" position="36,0" orientation="0" fontname="Arial" fontsize="12" bold="0" italic="0" color="#229922"/>
        <legend text="0.55 V" position="36,16" orientation="0" fontname="Arial" fontsize="12" bold="0" italic="0" color="#229922"/>
        <pin position="0,60" dir="0" length="0" text="A"/>
        <pin position="0,-60" dir="0" length="0" text="K"/>
      </image>
		</component>
    <component type="Ground" typeid="2" position="1220,660" mirrored="0" nodematch="0" macrotype="2" orientation="0">
			<parameter idx="0" encrypted="0">
			</parameter>
			<image>
				<label text="GND1" position="1220,660" textroot="GND1" orientation="0" color="#228822"/>
			</image>
		</component>
    <component type="Rfbt" typeid="57" position="1910,390" mirrored="0" nodematch="0" macrotype="2" orientation="0">
			<parameter idx="0" encrypted="0">
        <![CDATA[
***********************************
*     Created by WB Importer      *
***********************************
.subckt LM5000_MAIN_BLOCK_WB_LMR14030S_BUCK_BLOCK_Rfbt 1 2
Rfbt 1 2 221000.0

.ends]]>
      </parameter>
			<image>
				<label text="Rfbt" position="1928,360" textroot=" " orientation="0" color=""/>  <hotzone points="-10,60,10,-60"/>
        <shape type="line" width="1" color="#0000ff" points="0,60,0,40"/>
        <shape type="line" width="1" color="#0000ff" points="0,40,-10,30"/>
        <shape type="line" width="1" color="#0000ff" points="-10,30,10,10"/>
        <shape type="line" width="1" color="#0000ff" points="10,10,-10,-10"/>
        <shape type="line" width="1" color="#0000ff" points="-10,-10,10,-30"/>
        <shape type="line" width="1" color="#0000ff" points="10,-30,0,-40"/>
        <shape type="line" width="1" color="#0000ff" points="0,-40,0,-60"/>
        <legend text="0.221 MOhm" position="10,-8" orientation="0" fontname="Arial" fontsize="12" bold="0" italic="0" color="#229922"/>
        <pin position="0,-60" dir="0" length="0" text="1"/>
        <pin position="0,60" dir="0" length="0" text="2"/>
      </image>
		</component>
    <component type="IDiode" typeid="34" position="1510,400" mirrored="0" nodematch="0" macrotype="2" orientation="0">
			<parameter idx="0" encrypted="0">
			</parameter>
			<image>
				<label text="IDiode" position="1510,400" textroot=" " orientation="0" color=""/>  <hotzone points="-6,30,6,-30"/>
        <shape type="line" width="Hair" color="#0000ff" points="0,30,0,-30"/>